Version 4
SHEET 1 1004 680
WIRE -192 -240 -608 -240
WIRE 80 -240 -96 -240
WIRE 224 -240 80 -240
WIRE 224 -224 224 -240
WIRE 352 -224 224 -224
WIRE 608 -224 432 -224
WIRE 816 -224 608 -224
WIRE -608 -192 -608 -240
WIRE -144 -128 -144 -160
WIRE 608 -48 608 -224
WIRE 816 -48 816 -224
WIRE -608 -32 -608 -112
WIRE -144 -16 -144 -48
WIRE 80 -16 80 -240
WIRE 80 -16 -144 -16
WIRE 224 0 224 -224
WIRE 224 144 224 64
WIRE 608 144 608 16
WIRE 608 144 224 144
WIRE 800 144 608 144
WIRE 816 144 816 32
WIRE 816 144 800 144
WIRE 800 240 800 144
FLAG -608 -32 0
FLAG 800 240 0
FLAG 816 -224 V_out
IOPIN 816 -224 Out
SYMBOL res 800 -64 R0
SYMATTR InstName Load_Resistor
SYMATTR Value 35
SYMATTR SpiceLine tol=5 pwr=10
SYMBOL cap 592 -48 R0
SYMATTR InstName C1
SYMATTR Value 62.5µ
SYMBOL ZZZ\\MOS\\IRF\\NMOSFET\\irfz44n -144 -208 R270
WINDOW 0 64 -48 Left 2
SYMATTR InstName MOSFET_IRFZ44N
SYMBOL ind 336 -208 R270
WINDOW 0 32 56 VTop 2
WINDOW 3 5 56 VBottom 2
SYMATTR InstName L1
SYMATTR Value 0.5m
SYMBOL voltage -144 -144 R0
WINDOW 123 24 124 Left 2
WINDOW 39 0 0 Left 0
SYMATTR Value2 AC 1
SYMATTR InstName PWM_SIGNAL
SYMATTR Value PULSE(0 15 1p 1p 1p 2.78u 10u)
SYMBOL voltage -608 -208 R0
WINDOW 123 0 0 Left 0
WINDOW 39 0 0 Left 0
SYMATTR InstName Supply_Voltage_18V
SYMATTR Value 18
SYMBOL schottky 240 64 R180
WINDOW 0 24 64 Left 2
WINDOW 3 24 0 Left 2
SYMATTR InstName D1
SYMATTR Value 1N5822
SYMATTR Description Diode
SYMATTR Type diode
TEXT -480 144 Left 2 !.tran 100m
