Version 4
SHEET 1 1072 1120
WIRE -1088 -160 -1152 -160
WIRE -944 -160 -1008 -160
WIRE -944 -112 -944 -160
WIRE -912 -112 -944 -112
WIRE -1264 -32 -1376 -32
WIRE -1152 -32 -1152 -160
WIRE -1072 -32 -1152 -32
WIRE -864 -32 -1008 -32
WIRE -1264 0 -1264 -32
WIRE -864 16 -864 -32
WIRE -752 16 -864 16
WIRE -432 16 -496 16
WIRE -240 16 -336 16
WIRE -176 16 -240 16
WIRE -112 16 -176 16
WIRE -112 32 -112 16
WIRE -96 32 -112 32
WIRE 48 32 -16 32
WIRE 224 32 48 32
WIRE 288 32 224 32
WIRE -944 64 -944 -112
WIRE -864 64 -864 16
WIRE -752 64 -752 16
WIRE -656 64 -752 64
WIRE -176 80 -176 16
WIRE 48 80 48 32
WIRE 224 80 224 32
WIRE -1824 128 -1824 80
WIRE -1728 128 -1824 128
WIRE -1376 128 -1376 -32
WIRE -1376 128 -1472 128
WIRE -1264 128 -1264 80
WIRE -1152 128 -1152 -32
WIRE -1152 128 -1264 128
WIRE -1008 128 -1152 128
WIRE -384 128 -384 96
WIRE -752 144 -752 64
WIRE -656 144 -656 64
WIRE -1264 160 -1264 128
WIRE -1824 176 -1824 128
WIRE -1376 224 -1376 128
WIRE -176 224 -176 144
WIRE 48 224 48 144
WIRE 48 224 -176 224
WIRE 208 224 48 224
WIRE 224 224 224 160
WIRE 224 224 208 224
WIRE -1824 304 -1824 240
WIRE -1600 304 -1600 224
WIRE -1600 304 -1824 304
WIRE -1376 304 -1376 288
WIRE -1376 304 -1600 304
WIRE -1264 304 -1264 240
WIRE -960 304 -960 288
WIRE -960 304 -992 304
WIRE -560 304 -560 256
WIRE 448 304 272 304
WIRE 640 304 512 304
WIRE -864 320 -864 288
WIRE -752 320 -752 224
WIRE -752 320 -864 320
WIRE 208 320 208 224
WIRE -1600 384 -1600 304
WIRE -224 416 -256 416
WIRE -160 416 -224 416
WIRE 160 416 96 416
WIRE 272 416 272 304
WIRE 272 416 160 416
WIRE 368 416 272 416
WIRE 688 416 592 416
WIRE -992 448 -992 304
WIRE -560 464 -560 384
WIRE -224 464 -224 416
WIRE 368 480 272 480
WIRE 640 480 640 304
WIRE 640 480 592 480
WIRE 752 480 640 480
WIRE 160 512 160 416
WIRE 752 512 752 480
WIRE 272 544 272 480
WIRE 640 544 592 544
WIRE 640 560 640 544
WIRE -224 592 -224 528
WIRE -32 592 -32 512
WIRE -32 592 -224 592
WIRE 160 592 160 576
WIRE 160 592 -32 592
WIRE 368 608 272 608
WIRE -32 624 -32 592
WIRE 272 640 272 608
WIRE -992 656 -992 528
FLAG 208 320 0
FLAG 288 32 V_out
IOPIN 288 32 Out
FLAG 688 416 OUT_DRIVER
IOPIN 688 416 Out
FLAG -32 624 0
FLAG -1600 384 0
FLAG -560 464 0
FLAG -560 256 V_in
IOPIN -560 256 Out
FLAG -992 656 0
FLAG -912 -112 Out_coupler
IOPIN -912 -112 Out
FLAG -1264 304 0
FLAG 640 560 Out_coupler
IOPIN 640 560 In
FLAG -384 128 OUT_DRIVER
IOPIN -384 128 In
FLAG -256 416 V_in
IOPIN -256 416 In
FLAG -496 16 V_in
IOPIN -496 16 In
FLAG -1824 80 V_in
IOPIN -1824 80 In
FLAG 752 512 0
FLAG 272 640 Driver_Source
IOPIN 272 640 Out
FLAG -240 16 Driver_Source
IOPIN -240 16 In
FLAG -656 144 0
SYMBOL res 208 64 R0
WINDOW 0 39 37 Left 2
SYMATTR InstName Load_Resistor1
SYMATTR Value 6.8
SYMATTR SpiceLine tol=5 pwr=10
SYMBOL polcap 32 80 R0
WINDOW 3 24 56 Left 2
SYMATTR Value 100µ
SYMATTR InstName C1
SYMATTR Description Capacitor
SYMATTR Type cap
SYMATTR SpiceLine V=63 Irms=695m Rser=0.14 Lser=0 mfg="Nichicon" pn="UPL1J101MRH6" type="Al electrolytic"
SYMBOL ZZZ\\MOS\\IRF\\NMOSFET\\irfz44n -384 48 R270
WINDOW 0 64 -48 Left 2
SYMATTR InstName MOSFET_IRFZ1
SYMBOL ind -112 48 R270
WINDOW 0 32 56 VTop 2
WINDOW 3 5 56 VBottom 2
SYMATTR InstName L1
SYMATTR Value 56µ
SYMBOL schottky -160 144 R180
WINDOW 0 24 64 Left 2
WINDOW 3 24 0 Left 2
SYMATTR InstName D1
SYMATTR Value 1N5822
SYMATTR Description Diode
SYMATTR Type diode
SYMBOL ZZZ\\GATEDRV\\IR\\IR2011 480 512 R0
SYMATTR InstName ICL1
SYMBOL ZZZ\\VolReg\\LM7815 -32 416 R0
WINDOW 0 -142 -89 Left 2
SYMATTR InstName UA1
SYMBOL cap 144 512 R0
SYMATTR InstName C2
SYMATTR Value 0.1µ
SYMBOL cap -240 464 R0
SYMATTR InstName C3
SYMATTR Value 0.33µ
SYMATTR SpiceLine V=25 Irms=0 Rser=0 Lser=0
SYMBOL voltage -992 432 R0
WINDOW 123 24 124 Left 2
WINDOW 39 0 0 Left 0
WINDOW 3 32 90 Left 2
SYMATTR Value2 AC 5 0
SYMATTR Value PULSE(0 5 0 0 0 2.78u 10u)
SYMATTR InstName V3
SYMBOL ZZZ\\OPTO\\6n137 -912 192 R270
WINDOW 0 -11 79 VRight 2
SYMATTR InstName U1
SYMBOL ZZZ\\VolReg\\LM7815 -1600 128 R0
WINDOW 0 -142 -89 Left 2
SYMATTR InstName UA2
SYMBOL cap -1392 224 R0
SYMATTR InstName C4
SYMATTR Value 0.1µ
SYMBOL cap -1840 176 R0
SYMATTR InstName C5
SYMATTR Value 0.33µ
SYMATTR SpiceLine V=25 Irms=0 Rser=0 Lser=0
SYMBOL voltage -560 288 R0
WINDOW 123 0 0 Left 0
WINDOW 39 24 124 Left 2
SYMATTR InstName V4
SYMATTR Value 18
SYMBOL res -768 128 R0
SYMATTR InstName R1
SYMATTR Value 33
SYMBOL cap -1008 -48 R90
WINDOW 0 0 32 VBottom 2
WINDOW 3 32 32 VTop 2
SYMATTR InstName C6
SYMATTR Value 0.1µ
SYMBOL res -992 -176 R90
WINDOW 0 0 56 VBottom 2
WINDOW 3 32 56 VTop 2
SYMATTR InstName R2
SYMATTR Value 1.5k
SYMBOL res -1280 -16 R0
SYMATTR InstName R3
SYMATTR Value 100
SYMBOL res -1280 144 R0
SYMATTR InstName R4
SYMATTR Value 55
SYMBOL schottky 288 480 R180
WINDOW 0 24 64 Left 2
WINDOW 3 24 0 Left 2
SYMATTR InstName D2
SYMATTR Value 1N5822
SYMATTR Description Diode
SYMATTR Type diode
SYMBOL polcap 256 544 R0
WINDOW 3 24 56 Left 2
SYMATTR Value 33µ
SYMATTR InstName C7
SYMATTR Description Capacitor
SYMATTR Type cap
SYMATTR SpiceLine V=25 Irms=460m Rser=0.7 Lser=0 mfg="Vishay" pn="293D336M025D" type="Tantalum"
SYMBOL polcap 512 288 R90
WINDOW 0 0 32 VBottom 2
WINDOW 3 32 32 VTop 2
SYMATTR InstName C8
SYMATTR Value 100µ
SYMATTR Description Capacitor
SYMATTR Type cap
SYMATTR SpiceLine V=63 Irms=750m Rser=0.12 Lser=0 mfg="Nichicon" pn="UPL1J101MPH" type="Al electrolytic"
TEXT -1264 360 Left 2 !.tran 50m
