Version 4
SHEET 1 1016 852
WIRE -960 64 -1056 64
WIRE -768 64 -960 64
WIRE -528 64 -768 64
WIRE -160 64 -272 64
WIRE 112 64 -160 64
WIRE 560 64 336 64
WIRE -1056 80 -1056 64
WIRE 576 128 336 128
WIRE 576 144 576 128
WIRE 560 192 336 192
WIRE -768 208 -768 64
WIRE -1056 240 -1056 160
WIRE -160 272 -160 64
WIRE 560 336 560 192
WIRE -768 352 -768 272
WIRE -400 352 -400 160
WIRE -400 352 -768 352
WIRE -160 352 -160 336
WIRE -160 352 -400 352
WIRE 560 416 448 416
WIRE -400 432 -400 352
WIRE 448 464 448 416
FLAG 448 464 0
FLAG 560 64 OUT
IOPIN 560 64 Out
FLAG -400 432 0
FLAG -1056 240 0
FLAG -960 64 V_in
FLAG 576 144 0
SYMBOL ZZZ\\GATEDRV\\IR\\IR2011 224 160 R0
SYMATTR InstName ICL7667_MOSFET_Gate_Driver
SYMBOL voltage 560 320 R0
WINDOW 123 24 124 Left 2
WINDOW 39 0 0 Left 0
SYMATTR Value2 AC 1 0
SYMATTR InstName V1
SYMATTR Value PULSE(0 5 1n 1n 1n 5u 10u)
SYMBOL ZZZ\\VolReg\\LM7815 -400 64 R0
WINDOW 0 -142 -89 Left 2
SYMATTR InstName UA7815_voltage_regulator
SYMBOL cap -176 272 R0
SYMATTR InstName C1
SYMATTR Value 0.1µ
SYMBOL cap -784 208 R0
SYMATTR InstName C2
SYMATTR Value 0.33µ
SYMATTR SpiceLine V=25 Irms=0 Rser=0 Lser=0
SYMBOL voltage -1056 64 R0
WINDOW 123 0 0 Left 0
WINDOW 39 24 124 Left 2
SYMATTR InstName V3
SYMATTR Value 18
TEXT -128 392 Left 2 !.tran 20u
TEXT -128 392 Left 2 !;tran 20u
