Version 4
SHEET 1 880 680
WIRE -560 -432 -848 -432
WIRE -176 -416 -416 -416
WIRE 128 -416 -96 -416
WIRE 128 -368 128 -416
WIRE 160 -368 128 -368
WIRE -560 -288 -560 -432
WIRE -416 -208 -416 -416
WIRE -16 -208 -416 -208
WIRE 208 -208 48 -208
WIRE 208 -96 208 -208
WIRE 512 -96 208 -96
WIRE 128 -48 128 -368
WIRE 208 -48 208 -96
WIRE 512 -48 512 -96
WIRE 608 -48 512 -48
WIRE -1632 16 -1728 16
WIRE -1440 16 -1632 16
WIRE -1200 16 -1440 16
WIRE -848 16 -848 -432
WIRE -848 16 -944 16
WIRE -560 16 -560 -208
WIRE -416 16 -416 -208
WIRE -416 16 -560 16
WIRE 64 16 -416 16
WIRE 608 16 608 -48
WIRE -1728 32 -1728 16
WIRE -560 80 -560 16
WIRE 512 144 512 -48
WIRE -1440 160 -1440 16
WIRE -1728 192 -1728 112
WIRE 112 192 112 176
WIRE 112 192 80 192
WIRE -848 224 -848 16
WIRE 208 272 208 176
WIRE 512 272 512 224
WIRE 512 272 208 272
WIRE -1440 304 -1440 224
WIRE -1072 304 -1072 112
WIRE -1072 304 -1440 304
WIRE -848 304 -848 288
WIRE -848 304 -1072 304
WIRE -560 320 -560 160
WIRE 80 336 80 192
WIRE -1072 384 -1072 304
WIRE 80 544 80 416
FLAG 608 16 0
FLAG -1072 384 0
FLAG -1728 192 0
FLAG -1632 16 V_in
FLAG 80 544 0
FLAG 160 -368 V_out
IOPIN 160 -368 Out
FLAG -560 320 0
SYMBOL voltage 80 320 R0
WINDOW 123 24 124 Left 2
WINDOW 39 0 0 Left 0
SYMATTR Value2 AC 1 0
SYMATTR InstName V1
SYMATTR Value PULSE(0 5 1n 1n 1n 2.78u 10u)
SYMBOL ZZZ\\OPTO\\6n137 160 80 R270
WINDOW 0 -11 79 VRight 2
SYMATTR InstName U1
SYMBOL ZZZ\\VolReg\\LM7815 -1072 16 R0
WINDOW 0 -142 -89 Left 2
SYMATTR InstName UA1
SYMBOL cap -864 224 R0
SYMATTR InstName C1
SYMATTR Value 0.1µ
SYMBOL cap -1456 160 R0
SYMATTR InstName C2
SYMATTR Value 0.33µ
SYMATTR SpiceLine V=25 Irms=0 Rser=0 Lser=0
SYMBOL voltage -1728 16 R0
WINDOW 123 0 0 Left 0
WINDOW 39 24 124 Left 2
SYMATTR InstName V2
SYMATTR Value 18
SYMBOL res 496 128 R0
SYMATTR InstName R1
SYMATTR Value 47
SYMBOL cap 48 -224 R90
WINDOW 0 0 32 VBottom 2
WINDOW 3 32 32 VTop 2
SYMATTR InstName C3
SYMATTR Value 0.1µ
SYMBOL res -80 -432 R90
WINDOW 0 0 56 VBottom 2
WINDOW 3 32 56 VTop 2
SYMATTR InstName R2
SYMATTR Value 1.5k
SYMBOL res -576 -304 R0
SYMATTR InstName R3
SYMATTR Value 100
SYMBOL res -576 64 R0
SYMATTR InstName R4
SYMATTR Value 50
TEXT -384 344 Left 2 !.tran 100u
TEXT -384 344 Left 2 !;tran 20u
