Version 4
SHEET 1 1400 680
WIRE -336 160 -432 160
WIRE -144 160 -336 160
WIRE 96 160 -144 160
WIRE 464 160 352 160
WIRE 608 160 464 160
WIRE -432 176 -432 160
WIRE -144 304 -144 160
WIRE -432 336 -432 256
WIRE 464 368 464 160
WIRE -144 448 -144 368
WIRE 224 448 224 256
WIRE 224 448 -144 448
WIRE 464 448 464 432
WIRE 464 448 224 448
WIRE 224 528 224 448
FLAG 224 528 0
FLAG -432 336 0
FLAG 608 160 V_out
IOPIN 608 160 Out
FLAG -336 160 V_in
SYMBOL ZZZ\\VolReg\\LM7815 224 160 R0
SYMATTR InstName U1
SYMBOL cap 448 368 R0
SYMATTR InstName C1
SYMATTR Value 0.1µ
SYMBOL cap -160 304 R0
SYMATTR InstName C2
SYMATTR Value 0.33µ
SYMATTR SpiceLine V=25 Irms=0 Rser=0 Lser=0
SYMBOL voltage -432 160 R0
WINDOW 123 0 0 Left 0
WINDOW 39 24 124 Left 2
SYMATTR InstName V1
SYMATTR Value 18
TEXT -466 552 Left 2 !.tran 10
